Mass Spectrum: Dexamethasone
Formula: C22 H29 F O5
CAS: 50-02-2
Molecular weight: 392
Origin: Japan AIST/NIMC Database- Spectrum MS-NW-8568
m/z	RELATIVE INTENSITY
14	40
15	50
17	20
18	60
19	10
20	20
26	10
27	219
28	389
29	769
30	499
31	529
32	139
35	10
36	40
38	10
39	299
40	70
41	1049
42	359
43	1039
44	169
45	159
46	10
47	70
48	20
49	30
50	30
51	129
52	70
53	429
54	60
55	859
56	80
57	279
58	109
59	159
60	449
61	30
62	10
63	50
64	30
65	299
66	80
67	419
68	90
69	659
70	80
71	239
72	40
73	329
74	20
75	60
76	20
77	799
78	189
79	519
80	90
81	439
82	99
83	359
84	60
85	239
86	30
87	189
88	60
89	70
90	30
91	1449
92	359
93	549
94	159
95	519
96	159
97	239
98	70
99	149
100	40
101	99
102	50
103	209
104	70
105	439
106	129
107	989
108	559
109	719
110	179
111	379
112	70
113	159
114	40
115	379
116	159
117	469
118	80
119	329
120	289
121	4929
122	9999
123	1279
124	279
125	339
126	70
127	249
128	229
129	249
130	90
131	359
132	129
133	569
134	889
135	1529
136	479
137	409
138	99
139	659
140	139
141	299
142	109
143	149
144	139
145	499
146	379
147	1479
148	239
149	229
150	109
151	179
152	259
153	249
154	90
155	139
156	60
157	209
158	259
159	759
160	1329
161	609
162	129
163	229
164	90
165	269
166	99
167	129
168	70
169	139
170	80
171	419
172	179
173	409
174	149
175	209
176	80
177	179
178	149
179	259
180	90
181	169
182	80
183	159
184	219
185	399
186	419
187	589
188	169
189	259
190	80
191	179
192	60
193	139
194	60
195	189
196	99
197	239
198	109
199	209
200	90
201	99
202	129
203	179
204	70
205	99
206	60
207	119
208	149
209	259
210	139
211	289
212	139
213	439
214	219
215	119
216	40
217	40
218	20
219	40
220	30
221	149
222	99
223	859
224	359
225	349
226	179
227	379
228	129
229	80
230	30
231	40
232	20
233	60
234	30
235	90
236	169
237	309
238	499
239	279
240	139
241	279
242	629
243	189
244	50
245	30
246	20
247	30
248	30
249	60
250	30
251	139
252	70
253	389
254	159
255	469
256	189
257	90
258	50
259	40
260	20
261	60
262	50
263	80
264	50
265	80
266	90
267	129
268	369
269	199
270	60
271	50
272	20
273	30
274	20
275	50
276	60
277	229
278	109
279	339
280	99
281	119
282	109
283	70
284	239
285	80
286	30
287	20
288	10
289	30
290	20
291	40
292	20
293	50
294	119
295	289
296	109
297	189
298	70
299	90
300	30
301	20
302	10
303	10
304	10
305	20
306	30
307	60
308	40
309	50
310	30
311	40
312	1219
313	359
314	109
315	879
316	199
317	50
318	20
319	10
321	20
322	20
323	30
324	99
325	119
326	70
327	40
328	30
329	20
330	10
331	10
332	40
333	409
334	109
335	20
336	30
337	10
338	20
339	20
340	169
341	50
342	1489
343	429
344	80
345	149
346	40
347	20
354	129
355	30
356	99
357	30
359	10
360	10
362	50
363	20
364	10
370	10
372	199
373	50
374	60
375	10
392	90
393	20
