Mass Spectrum: Ergocalciferol
Formula: C28 H44 O
CAS: 50-14-6
Molecular weight: 396
Origin: Patti Price, Georgia Bureau of Investigation, Decatur, Georgia
m/z	RELATIVE INTENSITY
39	180
41	1621
42	150
43	2422
44	130
51	30
53	350
54	90
55	3343
56	170
57	550
65	290
66	100
67	1931
68	160
69	2562
70	330
71	200
77	940
78	270
79	1941
80	360
81	1711
82	250
83	720
85	40
91	3473
92	860
93	1781
94	460
95	1271
96	130
97	290
100	50
103	270
104	130
105	1311
106	220
107	1040
108	170
109	470
110	60
115	770
116	300
117	2262
118	9588
119	3653
120	370
121	490
122	60
123	120
125	130
127	200
128	760
129	1301
130	460
131	1311
132	270
133	970
134	280
135	1771
136	9999
137	1411
138	140
141	560
142	510
143	1321
144	400
145	1010
146	220
147	520
148	80
149	200
150	40
151	70
152	90
153	190
154	180
155	520
156	320
157	1101
158	370
159	820
160	140
161	400
162	70
163	100
165	150
166	110
167	240
168	140
169	430
170	170
171	650
172	150
173	280
174	120
175	300
176	130
177	70
178	60
181	170
182	150
183	440
184	130
185	340
186	100
187	110
189	70
194	30
195	170
196	90
197	460
198	90
199	230
207	30
209	120
210	110
211	520
212	120
223	110
224	60
226	80
227	130
230	50
237	120
238	80
239	100
251	130
253	1261
254	310
255	90
256	50
270	40
271	590
272	100
279	40
337	110
353	70
363	300
364	80
378	70
381	30
396	1201
397	350
398	70
