Mass Spectrum: Cyclophosphamide
Formula: C7 H15 Cl2 N2 O2 P
CAS: 50-18-0
Molecular weight: 260
Origin: Japan AIST/NIMC Database- Spectrum MS-NW-6932
m/z	RELATIVE INTENSITY
15	149
17	50
18	189
26	70
27	889
28	1009
29	229
30	659
31	20
32	10
35	30
36	179
37	10
38	50
39	129
40	40
41	529
42	749
43	129
44	159
45	10
46	60
47	299
48	30
49	149
51	40
52	10
53	10
54	249
55	149
56	6779
57	399
58	109
59	10
61	30
62	50
63	529
64	80
65	379
66	10
67	40
68	70
69	99
70	199
71	20
72	10
74	30
75	20
76	99
77	20
78	60
79	30
80	80
81	10
82	20
83	30
84	10
86	10
88	30
89	10
90	139
91	60
92	2589
93	159
94	779
95	30
96	20
97	10
98	10
99	10
100	10
101	10
102	239
103	30
104	109
105	30
106	429
107	30
108	119
109	10
110	20
111	30
112	30
114	20
115	10
117	10
118	60
119	50
120	4809
121	409
122	50
124	50
126	30
128	50
130	10
131	10
132	30
133	60
134	209
135	30
138	30
140	70
141	10
142	70
144	20
145	40
146	10
147	159
148	40
149	579
150	30
153	20
154	129
155	20
156	149
157	10
158	40
161	109
162	70
163	10
168	40
170	10
175	639
176	50
177	30
181	169
182	20
183	189
184	10
185	50
188	10
189	40
195	20
197	60
198	10
199	20
209	10
211	9999
212	759
213	3289
214	249
215	20
223	10
224	90
225	159
226	40
227	50
259	10
260	189
261	40
262	119
263	20
264	20
