Mass Spectrum: Estradiol
Formula: C18 H24 O2
CAS: 50-28-2
Molecular weight: 272
Origin: NIST Mass Spectrometry Data Center
m/z	RELATIVE INTENSITY
15	20
19	10
26	30
27	400
28	160
29	791
30	80
31	260
37	10
38	20
39	681
40	160
41	1631
42	170
43	1051
44	320
45	190
46	10
50	50
51	280
52	120
53	811
54	130
55	1571
56	120
57	1121
58	150
59	30
61	10
62	30
63	170
64	80
65	601
66	170
67	1021
68	290
69	420
70	80
71	180
72	50
73	60
74	20
75	80
76	110
77	1682
78	400
79	1341
80	170
81	701
82	180
83	290
84	120
85	150
86	90
87	50
88	40
89	290
90	90
91	2152
92	360
93	831
94	300
95	601
96	90
97	330
98	150
99	160
100	70
101	80
102	220
103	861
104	280
105	1411
106	290
107	2512
108	791
109	300
110	230
111	130
112	40
113	80
114	140
115	2843
116	1001
117	1051
118	200
119	430
120	1181
121	1341
122	230
123	220
124	60
125	80
126	100
127	1962
128	1631
129	1041
130	220
131	3033
132	1241
133	4844
134	941
135	260
136	40
137	50
138	10
139	170
140	60
141	1101
142	300
143	290
144	2502
145	4824
146	6196
147	2002
148	280
149	70
150	80
151	340
152	470
153	460
154	160
155	280
156	90
157	3143
158	2813
159	5225
160	6936
161	941
162	110
163	40
164	50
165	490
166	140
167	180
168	120
169	340
170	591
171	1591
172	5235
173	1391
174	200
175	781
176	160
177	60
178	110
179	160
180	40
181	290
182	170
183	621
184	430
185	1682
186	2362
187	540
188	771
189	140
190	50
191	30
192	20
193	40
194	50
195	110
196	90
197	591
198	280
199	861
200	611
201	330
202	70
203	20
204	10
207	30
208	20
209	50
210	40
211	510
212	240
213	4694
214	841
215	490
216	80
217	20
221	10
222	10
223	10
224	20
225	310
226	420
227	140
228	280
229	90
230	30
231	10
237	50
238	20
239	210
240	40
241	10
242	10
243	50
244	380
245	60
246	10
251	10
252	10
253	240
254	130
255	40
256	10
257	40
258	10
269	10
270	50
271	170
272	9999
273	1992
274	220
275	20
