Mass Spectrum: Benzoic acid, 2,6-dichloro-
Formula: C7 H4 Cl2 O2
CAS: 50-30-6
Molecular weight: 190
Origin: NIST Mass Spectrometry Data Center, 1994
m/z	RELATIVE INTENSITY
12	54
16	23
17	160
18	19
25	66
26	5
28	14
35	267
36	398
37	1310
38	701
39	337
44	137
45	1244
47	244
48	173
49	933
50	1375
51	474
52	69
53	178
54	69
55	387
60	255
61	572
62	417
63	1150
64	147
65	95
66	65
70	25
71	115
73	1684
74	3726
75	3992
76	370
77	269
78	68
79	53
81	130
82	122
83	113
84	1394
85	563
86	580
87	351
89	64
90	58
91	273
92	74
93	40
95	76
96	84
97	125
98	209
99	664
100	90
101	222
102	48
105	93
106	64
107	89
108	334
109	2193
110	1558
111	1508
112	586
113	318
118	83
119	122
121	102
122	30
126	189
128	63
133	70
135	47
145	2303
146	356
147	1429
148	160
149	282
150	47
155	230
156	45
157	86
162	386
163	51
164	272
165	48
166	62
173	9999
175	7146
176	588
177	1207
178	175
179	82
188	30
190	5262
191	409
192	3447
193	265
194	566
195	45
