Mass Spectrum: 1H-Isoindole-1,3(2H)-dione, 2-(2,6-dioxo-3-piperidinyl)-
Formula: C13 H10 N2 O4
CAS: 50-35-1
Molecular weight: 258
Origin: NIST Mass Spectrometry Data Center, 1998.
m/z	RELATIVE INTENSITY
14	10
26	130
27	460
28	920
29	130
30	10
37	70
38	300
39	810
40	140
41	330
42	630
43	210
44	150
49	80
50	3300
51	800
52	1040
53	190
54	870
55	580
56	300
57	70
61	30
62	50
63	190
64	110
65	110
66	1520
68	160
69	30
70	180
73	130
74	1280
75	1760
76	7939
77	2310
78	300
79	40
80	70
82	140
83	1380
84	790
85	40
86	10
88	60
89	340
90	880
91	190
92	40
93	690
95	20
100	10
101	60
102	790
103	1860
104	7889
105	2560
106	270
111	5829
112	450
113	30
114	110
115	330
116	440
117	970
118	450
119	60
121	10
128	100
129	1200
130	3230
131	630
132	1870
133	770
134	50
140	80
141	50
142	60
143	520
144	240
145	950
146	1360
147	540
148	5749
149	590
150	30
157	280
158	630
159	310
160	800
161	580
162	50
169	3840
170	550
171	40
172	630
173	9999
174	1640
175	900
176	90
184	120
185	1230
186	1480
187	1410
188	330
189	30
200	170
201	350
202	1840
203	230
204	20
212	20
213	880
214	110
215	300
216	30
229	70
230	1460
231	170
258	1360
259	160
260	10
