Mass Spectrum: D-Lysergic acid N,N-diethylamide
Formula: C20 H25 N3 O
CAS: 50-37-3
Molecular weight: 323
Origin: AAFS Toxicology Section MS DB Committee, U. Alberta, Canada
m/z	RELATIVE INTENSITY
42	660
44	870
46	20
52	20
58	440
63	30
66	10
72	2422
74	140
75	70
76	290
88	10
89	120
100	220
102	50
103	170
110	120
111	80
114	40
117	10
118	10
126	160
127	590
128	710
130	390
139	220
140	240
141	40
142	30
150	270
151	900
152	1090
153	920
154	1291
155	290
156	20
161	70
163	120
164	290
165	400
166	340
167	1161
168	360
169	70
170	50
175	110
176	50
177	130
178	1141
179	930
180	1531
181	3863
182	740
183	150
190	160
191	540
192	1121
193	640
194	500
195	450
196	1721
197	290
203	70
204	100
205	1461
206	1151
207	4003
208	1471
209	410
210	80
219	370
220	1090
221	7366
222	3312
223	2302
224	330
225	10
233	60
234	40
235	120
236	60
237	140
238	40
239	40
241	20
247	50
249	260
250	150
251	230
252	100
265	530
266	140
279	120
280	730
281	220
294	130
295	240
296	50
297	10
306	90
307	40
308	60
311	10
321	180
323	9999
324	2332
325	230
