Mass Spectrum: Benzoic acid, 2,4,6-trichloro-
Formula: C7 H3 Cl3 O2
CAS: 50-43-1
Molecular weight: 224
Origin: Japan AIST/NIMC Database- Spectrum MS-IW-6657
m/z	RELATIVE INTENSITY
18	10
28	60
35	20
36	119
37	199
38	70
39	10
44	40
45	159
47	30
48	60
49	119
50	109
51	20
53	20
54	189
55	60
60	50
61	109
62	99
63	90
66	80
67	50
68	70
69	20
71	289
72	329
73	609
74	1069
75	199
76	10
77	20
80	159
81	99
82	20
83	50
84	409
85	99
86	169
87	99
89	139
90	129
91	70
92	30
94	10
95	20
96	30
97	229
98	419
99	439
100	119
101	20
103	319
104	319
105	99
106	20
107	80
108	479
109	1029
110	249
111	339
112	60
113	30
114	10
118	50
119	60
120	40
121	40
122	10
125	60
126	30
127	20
128	10
131	10
132	99
133	189
134	70
135	119
136	10
137	30
142	10
143	609
144	819
145	699
146	549
147	259
148	90
149	30
153	10
155	10
160	50
162	30
167	10
169	10
171	10
172	10
178	10
179	1269
180	179
181	1219
182	169
183	399
184	50
185	40
189	90
190	10
191	70
193	20
196	259
197	10
198	239
199	10
200	80
202	10
207	9999
208	779
209	9649
210	739
211	3119
212	249
213	349
214	30
224	6949
225	539
226	6759
227	529
228	2219
229	169
230	249
231	10
