Mass Spectrum: Benzoic acid, 3,4-dichloro-
Formula: C7 H4 Cl2 O2
CAS: 51-44-5
Molecular weight: 190
Origin: Japan AIST/NIMC Database- Spectrum MS-NW-4797
m/z	RELATIVE INTENSITY
12	10
14	30
16	20
17	20
18	70
24	10
25	30
26	50
27	40
28	20
29	10
35	80
36	259
37	489
38	239
39	129
40	10
41	10
43	10
44	119
45	429
46	10
47	70
48	50
49	269
50	839
51	259
52	20
53	139
54	329
55	299
56	99
57	10
59	10
60	80
61	189
62	169
63	389
64	70
65	30
66	20
67	10
68	10
69	20
71	40
72	239
73	689
74	2089
75	1979
76	179
77	50
78	20
81	209
82	139
83	50
84	579
85	369
86	229
87	149
88	30
89	20
90	20
91	40
92	50
94	20
95	50
96	50
97	70
98	70
99	649
100	60
101	229
102	40
103	40
107	50
108	149
109	1719
110	649
111	1079
112	229
113	179
114	20
118	10
119	60
120	70
121	30
122	10
123	10
125	10
126	50
127	40
128	30
129	10
133	60
134	10
135	40
136	60
137	30
138	20
139	80
140	20
141	30
143	10
144	159
145	3889
146	409
147	2489
148	239
149	429
150	40
153	10
154	10
155	60
156	70
157	30
158	40
159	30
160	10
161	10
162	299
163	30
164	189
165	20
166	40
169	10
171	10
172	80
173	9879
174	819
175	6409
176	529
177	1059
178	90
179	10
188	10
189	40
190	9999
191	789
192	6369
193	539
194	1069
195	80
196	10
