Mass Spectrum: Propylthiouracil
Formula: C7 H10 N2 O S
CAS: 51-52-5
Molecular weight: 170
Origin: NIST Mass Spectrometry Data Center, 1998.
m/z	RELATIVE INTENSITY
14	10
15	20
26	130
27	790
28	420
29	430
30	70
32	80
33	20
34	10
36	10
37	80
38	270
39	1590
40	950
41	2040
42	640
43	830
44	200
45	260
46	90
47	80
49	10
50	150
51	260
52	440
53	650
54	990
55	1980
56	170
57	80
58	120
59	610
60	660
61	120
62	80
63	90
64	60
65	260
66	280
67	850
68	4550
69	960
70	680
71	260
72	270
73	70
74	10
75	10
76	30
77	20
78	20
79	60
80	180
81	170
82	570
83	3930
84	360
85	120
86	400
87	80
88	10
92	40
93	70
94	60
95	150
96	1390
97	120
98	70
99	80
100	260
101	20
102	20
103	20
104	10
107	10
108	30
109	80
110	570
111	50
112	910
113	1200
114	3500
115	270
116	170
119	20
120	10
121	20
123	50
124	10
125	280
126	70
127	570
128	120
129	20
137	310
138	210
139	10
140	10
141	430
142	6349
143	470
144	310
145	10
152	80
153	10
154	10
155	1470
156	120
157	70
167	10
168	20
169	380
170	9999
171	970
172	500
173	20
