Mass Spectrum: Bis(2-chloroethyl)methylamine
Formula: C5 H11 Cl2 N
CAS: 51-75-2
Molecular weight: 155
Origin: VERIFINN
m/z	RELATIVE INTENSITY
27	1291
28	450
29	110
30	220
41	200
42	1431
43	530
44	2242
49	130
54	110
55	100
56	310
57	310
58	380
63	2522
65	801
70	280
71	270
78	571
80	180
90	60
92	180
94	50
106	9999
107	440
108	3273
109	140
118	50
120	480
122	160
155	260
156	50
157	190
