Mass Spectrum: Spironolactone
Formula: C24 H32 O4 S
CAS: 52-01-7
Molecular weight: 416
Origin: AAFS Toxicology Section MS DB Committee, U. Alberta, Canada
m/z	RELATIVE INTENSITY
41	910
42	320
43	3873
44	620
45	660
46	40
47	70
50	50
51	120
52	80
53	460
54	190
55	2622
56	650
57	810
58	120
59	570
60	360
61	160
63	120
64	90
65	600
66	200
67	1351
68	330
69	1090
70	370
71	620
72	80
73	440
74	70
76	90
77	1841
78	450
79	1541
80	240
81	980
82	320
83	910
84	410
85	630
86	110
87	200
89	90
90	90
91	2051
92	500
93	950
94	220
95	840
96	300
97	1181
98	350
99	460
100	110
101	120
102	60
103	260
104	160
105	1411
106	230
107	930
108	370
109	560
110	180
111	1341
112	310
113	170
114	60
115	620
116	250
117	690
118	260
119	890
120	150
121	550
122	250
123	580
124	560
125	320
126	100
127	230
128	430
129	620
130	250
131	730
132	190
133	460
134	210
135	470
136	350
137	310
138	120
139	180
140	110
141	370
142	290
143	650
144	200
145	580
146	150
147	400
148	130
149	540
150	110
151	270
152	160
153	740
154	190
155	430
156	340
157	560
158	180
159	460
160	250
161	500
162	120
163	150
164	60
165	240
166	180
167	480
168	160
169	380
170	110
171	510
172	210
173	650
174	230
175	170
176	70
178	70
179	230
180	100
181	210
182	90
183	280
184	120
185	470
186	180
187	300
188	90
189	100
191	80
192	60
193	140
194	120
195	160
196	80
197	240
198	220
199	360
200	130
201	150
202	50
203	60
205	150
206	70
207	150
208	100
209	250
210	80
211	210
212	90
213	260
214	110
215	180
216	70
217	210
218	60
219	120
220	40
221	100
222	50
223	260
224	60
225	220
226	140
227	450
228	160
229	650
230	230
231	70
232	50
233	70
234	40
235	160
236	200
237	110
238	50
239	140
240	90
241	200
242	270
243	360
244	70
245	80
247	70
248	30
249	140
250	90
251	210
252	80
253	100
255	90
256	90
257	130
258	30
259	110
261	160
262	40
263	170
264	60
265	210
266	80
267	1070
268	290
269	120
270	60
271	60
273	60
274	80
275	240
276	280
277	110
278	50
279	90
280	50
281	160
282	60
283	640
284	150
285	190
286	50
289	70
294	40
295	80
296	130
297	100
298	70
299	40
301	710
302	150
303	90
304	40
305	160
306	50
307	200
308	30
311	40
312	50
313	70
322	170
323	520
324	120
325	660
326	150
327	50
328	30
340	2382
341	9999
342	2292
343	430
344	40
355	40
356	100
357	40
359	1431
360	400
361	120
373	90
374	2852
375	670
376	270
377	40
382	30
383	190
416	160
417	50
