Mass Spectrum: Allobarbital
Formula: C10 H12 N2 O3
CAS: 52-43-7
Molecular weight: 208
Origin: MI-0114
m/z	RELATIVE INTENSITY
26	601
27	2853
29	410
30	170
31	50
36	290
37	230
38	480
39	5455
40	981
41	8958
42	891
43	1802
44	1571
45	120
46	20
49	100
50	571
51	1201
52	1501
53	3403
54	801
55	571
56	400
57	200
61	100
62	150
63	340
64	190
65	881
66	761
67	1381
68	2712
69	420
70	861
71	100
75	100
76	100
77	1211
78	961
79	1571
80	5855
81	1341
82	390
83	300
84	70
85	100
89	100
90	60
91	881
92	450
93	520
94	480
95	520
96	1411
97	811
98	931
99	190
100	30
103	100
104	170
105	160
106	1902
107	470
108	300
109	300
110	140
111	100
112	40
117	70
118	130
119	140
120	380
121	300
122	741
123	561
124	6856
125	601
126	130
134	30
135	40
136	420
137	300
138	200
139	120
140	60
141	2152
142	300
143	60
147	100
148	200
149	200
150	480
151	500
152	400
153	410
154	601
155	100
163	100
164	140
165	2002
166	4104
167	9999
168	1151
169	180
179	1401
180	801
181	200
182	100
190	80
191	100
192	30
193	1501
194	200
207	100
208	1321
209	230
210	60
