Mass Spectrum: Haloperidol
Formula: C21 H23 Cl F N O2
CAS: 52-86-8
Molecular weight: 375
Origin: Chemical Concepts
m/z	RELATIVE INTENSITY
26	5
27	74
28	162
29	66
30	158
31	35
38	8
39	70
40	12
41	330
42	2516
43	284
44	76
45	16
48	24
49	41
50	43
51	67
52	17
53	47
54	95
55	344
56	844
57	195
58	68
59	10
60	133
62	9
63	30
64	7
65	27
66	9
67	30
68	161
69	159
70	431
71	260
72	20
73	14
74	19
75	207
76	57
77	121
78	39
79	8
80	16
81	21
82	180
83	706
84	467
85	37
86	192
87	14
88	7
89	37
90	14
91	57
92	16
93	12
94	61
95	794
96	150
97	53
98	255
99	30
100	5
101	59
102	64
103	75
104	44
105	21
106	9
107	11
108	32
109	83
110	25
111	280
112	163
113	104
114	30
115	105
116	39
117	28
118	10
119	8
120	10
121	27
122	32
123	1764
124	141
125	349
126	36
127	134
128	90
129	153
130	147
131	54
132	31
133	82
134	19
135	56
136	25
137	303
138	158
139	560
140	59
141	180
142	39
143	34
144	28
145	21
146	19
147	16
148	6
149	70
150	33
151	72
152	31
153	22
154	59
155	18
156	22
157	11
158	12
159	8
160	7
161	7
162	25
163	67
164	116
165	942
166	131
167	153
168	32
169	39
170	23
171	45
172	17
173	7
174	13
175	13
176	36
177	59
178	32
179	38
180	35
181	35
182	41
183	11
184	32
185	12
186	8
187	5
189	169
190	135
191	59
192	171
193	58
194	120
195	27
196	57
197	14
198	21
202	46
203	58
204	37
205	27
206	1446
207	208
208	533
209	176
210	219
211	70
212	62
213	20
217	11
218	51
219	221
220	132
221	116
222	138
223	40
224	9999
225	1209
226	3033
227	397
228	35
232	9
233	5
234	24
235	12
236	68
237	8493
238	1179
239	2513
240	333
241	29
249	5
250	27
251	5
252	19
253	2
356	19
357	29
358	35
359	15
360	21
374	57
375	225
376	76
377	83
378	25
