Mass Spectrum: Prasterone
Formula: C19 H28 O2
CAS: 53-43-0
Molecular weight: 288
Origin: NIST Mass Spectrometry Data Center
m/z	RELATIVE INTENSITY
15	40
20	20
25	20
26	60
27	1011
28	671
29	1982
30	110
31	370
36	40
37	30
38	30
39	1892
40	400
41	6496
42	671
43	2692
44	370
45	140
46	20
50	100
51	581
52	350
53	2913
54	490
55	6336
56	440
57	3003
58	180
59	150
60	60
61	10
62	40
63	240
64	190
65	1932
66	611
67	4474
68	611
69	1171
70	170
71	310
72	110
73	120
74	60
75	100
77	4664
78	1371
79	7727
80	1051
81	3703
82	520
83	1061
84	180
85	270
86	120
87	60
88	40
89	180
91	9659
92	2222
93	6446
94	1952
95	2803
96	601
97	4864
98	591
99	100
100	180
101	40
102	150
103	1011
104	681
105	8678
106	2262
107	6946
108	1421
109	1481
110	721
111	490
112	100
113	40
115	1922
116	811
117	3173
118	1401
119	5175
120	2963
121	3333
122	931
123	1241
124	611
125	801
126	120
127	410
128	1862
129	2552
130	1071
131	3873
132	1501
133	3283
134	1161
135	2212
136	520
137	611
138	240
139	110
140	20
141	1191
142	751
143	3473
144	1141
145	5045
146	1461
147	1712
148	1521
149	1762
150	591
151	380
152	200
153	320
154	160
155	831
156	410
157	2212
158	1151
159	4554
160	1151
161	1361
162	550
163	641
164	340
165	200
166	80
167	190
168	120
169	761
170	350
171	1862
172	991
173	1902
174	1782
175	1171
176	2853
177	4214
178	941
179	200
180	60
181	440
182	190
183	691
184	270
185	1982
186	711
187	1021
188	561
189	571
190	350
191	120
192	70
193	60
194	40
195	721
196	200
197	861
198	330
199	1902
200	691
201	791
202	1011
203	5825
204	991
205	210
206	100
207	40
209	270
210	140
211	961
212	370
213	3163
214	1111
215	801
216	520
217	280
218	120
219	90
220	20
221	20
222	70
223	110
224	70
225	150
226	250
227	1521
228	1451
229	1061
230	450
231	1682
232	340
233	140
234	10
235	50
237	2122
238	370
239	70
240	30
241	561
242	1151
243	300
244	510
245	641
246	160
247	40
251	40
252	230
253	210
255	7667
256	1341
257	170
258	50
259	80
260	290
261	90
262	10
268	30
270	4734
271	931
272	170
273	851
274	160
275	20
286	340
287	200
288	9999
289	2292
290	250
291	10
