Mass Spectrum: Tryptophan
Formula: C11 H12 N2 O2
CAS: 54-12-6
Molecular weight: 204
Origin: Chemical Concepts
m/z	RELATIVE INTENSITY
27	80
28	860
29	70
30	80
38	40
39	160
41	50
42	50
43	40
44	110
46	50
50	120
51	280
52	120
53	40
54	30
62	60
63	170
64	60
65	100
66	30
74	100
75	150
76	180
77	1030
78	150
79	140
87	30
88	30
89	150
90	110
91	50
101	100
102	370
103	850
104	120
107	30
113	30
114	40
115	160
116	70
117	280
128	300
129	310
130	9999
131	1070
132	220
140	40
141	30
142	80
143	60
155	40
156	40
157	80
158	180
159	190
160	30
204	550
205	70
