Mass Spectrum: 4-Pyridinecarboxylic acid
Formula: C6 H5 N O2
CAS: 55-22-1
Molecular weight: 123
Origin: Japan AIST/NIMC Database- Spectrum MS-NW-2303
m/z	RELATIVE INTENSITY
12	20
13	10
14	80
16	60
17	239
18	117
24	10
25	50
26	289
27	139
28	109
29	70
32	10
36	50
37	189
38	219
39	619
40	129
41	90
42	40
43	30
44	269
45	439
46	10
48	40
49	319
50	1889
51	3769
52	1959
53	309
54	30
55	30
56	10
57	10
60	10
61	20
62	20
63	20
64	20
65	30
66	109
67	149
68	129
69	20
70	20
74	20
75	149
76	179
77	459
78	4089
79	509
80	50
81	20
82	50
83	10
91	50
93	40
94	229
95	119
96	20
103	20
104	20
105	959
106	3479
107	269
108	10
122	30
123	9999
124	699
125	60
