Mass Spectrum: Fenthion
Formula: C10 H15 O3 P S2
CAS: 55-38-9
Molecular weight: 278
Origin: NIST Mass Spectrometry Data Center, 1995
m/z	RELATIVE INTENSITY
11	19
15	297
26	21
27	122
38	68
39	454
40	43
41	99
45	882
47	1433
48	73
49	76
50	193
51	576
52	209
53	118
55	29
57	28
58	130
59	134
61	103
62	506
63	1126
64	192
65	449
66	360
67	57
68	28
69	400
70	194
71	140
72	43
73	40
74	62
75	59
76	40
77	756
78	485
79	1844
80	102
81	85
82	90
83	72
84	157
85	168
86	55
87	39
89	171
90	47
91	484
92	39
93	1659
94	142
95	159
96	60
97	183
98	59
99	38
102	17
103	76
104	67
105	215
106	49
107	72
108	17
109	3267
110	700
111	191
112	37
119	31
121	617
122	290
123	208
124	31
125	3661
126	161
127	184
134	72
135	522
136	235
137	748
138	313
139	179
140	32
141	42
142	57
143	97
149	56
151	802
153	1449
154	437
155	263
156	41
157	23
167	228
168	476
169	2033
170	428
171	228
172	34
182	42
183	55
184	179
185	78
186	58
199	68
200	154
201	116
202	19
203	22
207	22
213	121
214	32
215	147
216	123
217	30
229	23
230	37
231	333
232	127
233	89
244	53
245	651
246	467
247	131
248	64
263	613
264	82
265	66
278	9999
279	1332
280	1044
281	159
282	38
