Mass Spectrum: Methylthiouracil
Formula: C5 H6 N2 O S
CAS: 56-04-2
Molecular weight: 142
Origin: NIST Mass Spectrometry Data Center, 1998.
m/z	RELATIVE INTENSITY
26	140
27	430
33	80
37	170
38	470
39	1100
40	570
41	730
42	7489
43	630
44	80
45	370
46	110
47	280
51	170
52	490
53	260
54	1040
55	750
56	220
57	270
58	260
59	810
60	290
66	160
67	690
68	3770
69	840
70	180
71	110
72	510
73	240
78	100
81	90
82	230
83	1410
84	1940
85	180
86	320
87	210
109	680
110	230
113	210
114	860
123	150
142	9999
143	840
144	350
145	110
