Mass Spectrum: 4(1H)-Pyrimidinone, 2,6-diamino-
Formula: C4 H6 N4 O
CAS: 56-06-4
Molecular weight: 126
Origin: Japan AIST/NIMC Database- Spectrum MS-NW-5083
m/z	RELATIVE INTENSITY
12	10
13	40
14	60
15	40
16	10
25	10
26	20
27	169
28	899
29	219
30	50
31	20
36	10
38	99
39	219
40	449
41	659
42	699
43	3039
44	259
45	10
51	10
52	20
53	169
54	80
55	379
56	889
57	199
58	20
59	109
60	10
63	99
64	10
65	40
66	189
67	429
68	1869
69	339
70	70
71	189
72	10
76	10
77	10
79	10
80	30
81	20
82	30
83	109
84	279
85	599
86	629
87	20
92	20
93	30
97	70
98	2129
99	439
100	20
108	10
109	30
110	99
111	10
125	20
126	9999
127	629
128	40
